6
17 Cl 3
  C   -3.27136364342642      4.73636184355424     -3.41047062416535
  O   -3.10390173292939      4.23248491026046     -4.68440145111166
  H   -2.17837236039583      4.32002977781210     -4.92779399727962
  Cl  -2.41557633315890      3.76185825556814     -2.16445390800328
  H   -2.89325222586384      5.74747768680953     -3.29316641211826
  H   -4.32550370422561      4.68379752609552     -3.17355560722183
