8
20 S 4
  C   -1.19586957015228      2.80178523902203      4.14910443734132
  C   -0.73694013147256      2.86857120091816      2.71953452916577
  S   -0.79010309848446      1.27374145642391      1.90358986572714
  H   -0.32007288445592      1.75861260141547      0.75120765274234
  O   -0.36561000866358      3.87209051488827      2.16362382656558
  H   -2.19478655838522      2.37498300261736      4.19954559769797
  H   -0.52796442328001      2.15619752372980      4.71523581182268
  H   -1.19226232500596      3.80065846108499      4.57053427893719
