8
20 S 4
  C   0.08595703666196     -0.33218224931478      0.14697199231605
  O   0.08558503617404     -0.33235747656772      1.35682601639648
  S   -0.27094963042659      1.05432598862942     -0.86092969344192
  H   0.31536499426517     -1.22137829115365     -0.45691886613012
  C   -0.58018913742741      2.25227525522273      0.44378055909360
  H   -0.82165997075359      3.19166567215970     -0.04207725858864
  H   -1.41079154931235      1.92203186602437      1.05761568835778
  H   0.30589722071877      2.36384823499993      1.05872556199676
