5
20 S 3
  C   0.06516994022140     -0.25370855260896      0.08983281828351
  S   0.10038503395167     -0.39168123222949      1.70182513144111
  S   -0.29555955213436      1.14950668770604     -0.85228424159300
  H   0.28298592884426     -1.09946492381182     -0.55996090131481
  H   -0.50304435078297      1.95513802094424      0.19731719318320
