21
Coordinates from ORCA-job geom
  C   -4.82659120760190      3.05056850281596     -0.00000022629203
  C   -4.67079556252719      1.66058352956944     -0.00000002278995
  C   -3.42064837543171      1.10041828845576      0.00000008588171
  H   -5.55160081869812      1.03252350053498      0.00000029920154
  C   -2.28270443743894      1.92925099407559     -0.00000006635216
  C   -2.41491973158209      3.36583593715353     -0.00000054634276
  C   -3.74130201864344      3.90507614895915     -0.00000039721400
  H   -5.81118410637409      3.49651062017866     -0.00000023463710
  O   -4.11490851401298      5.21906473520289     -0.00000007231619
  H   -3.26328323240874      0.03202972258143      0.00000046973506
  N   -1.07006861957149      1.30682408496234      0.00000024633177
  C   0.01665278949515      2.03366600322115      0.00000020375416
  C   0.00375886125728      3.44155347295994     -0.00000036276725
  C   -1.19800413011025      4.09512339330949     -0.00000059127531
  H   0.96130744343199      1.49863961368693      0.00000053215368
  H   0.93299390021570      3.99427665521862     -0.00000041512664
  H   -1.19229651537172      5.16863477802752     -0.00000096993969
  C   -3.24103032754068      6.33003079723076      0.00000007625468
  H   -3.88996084283216      7.20296375907927      0.00000040653824
  H   -2.61616740289643      6.35924392394353     -0.89484455733995
  H   -2.61616718325819      6.35924346193302      0.89484455674221
