8
X O 4
  C   -3.66601918773899      1.06331773862244     -0.05812519899864
  F   -4.69357935136643      1.74314893535618      0.44429075600890
  F   -3.91458810250238      0.80875687582979     -1.34073961161168
  C   -2.39176316145388      1.92188691377920      0.04758864492842
  F   -3.56549984808887     -0.09001348687989      0.58932236473934
  O   -1.44012151776737      1.30969919704324      0.75298822222828
  O   -2.31709680088367      3.00336211750885     -0.46411862947040
  H   -0.68190603019841      1.91180170874019      0.76713345217578
