12
X O 0
C	0.0000060	0.0433100	0.3666580
C	-1.1792110	-0.7780140	-0.1037210
C	1.3075300	-0.5488220	-0.0884140
O	-0.0462140	1.3580430	-0.1680750
H	-0.0067840	0.0837590	1.4597220
H	-2.1158320	-0.3250790	0.2184750
H	-1.1772740	-0.8327880	-1.1901120
H	-1.1336940	-1.7868740	0.3013890
H	2.1348810	0.0679280	0.2514640
H	1.4271820	-1.5532790	0.3095570
H	1.3305940	-0.5945040	-1.1750070
H	-0.8593170	1.7776470	0.1219670
