9
X F 0
  C   -1.28088565230714     -0.60914743063835      0.16019538798105
  C   0.13266921608006     -0.53275019978892     -0.32088776441554
  F   -1.35509410164514     -0.84743777254022      1.47861006271700
  C   0.97682230254002      0.37654694306837      0.15229951591453
  F   -1.94398132876160     -1.59300397929673     -0.46156020496124
  F   -1.95402048205954      0.53010166649237     -0.06196523765226
  H   0.41650804564792     -1.25683169135541     -1.06806388692114
  H   0.66890727569305      1.09153754298743      0.90043152414941
  H   1.99395972481237      0.42132392107146     -0.20220639681181
