7
X F 0
  C   -1.30626083847425     -0.81168586063269      0.05499766106641
  C   0.01543690865823     -0.19414475645127      0.01667026851300
  F   -1.44629205483673     -1.58688467874799      1.13377848334684
  C   1.10979745398750      0.31728327121644     -0.01508555814631
  H   2.07133483978232      0.76676723513266     -0.04299883033740
  F   -2.27035694006010      0.11216945612869      0.09134448033752
  F   -1.51495536905696     -1.57372266664584     -1.02206150478005
