7
13 F 0
  N   -1.02826059114992      5.13558520419136      0.59021958410431
  F   -1.85876306521197      4.43283352265612     -0.33018716523651
  C   -1.86452789263577      6.19354873802721      1.12144479735864
  H   -0.35785518648246      5.55291968577597     -0.04805780119238
  H   -2.62961116897165      5.75234390002654      1.75031082017540
  H   -2.33065954625134      6.80223094120694      0.34761719710375
  H   -1.22033254929689      6.81521800801584      1.73947256768679
