6
13 F 0
  O   -0.96644653061029      5.23515323723542      0.54606346480941
  F   -1.90209103688493      4.68745579645061     -0.38752115740022
  C   -1.62039036804837      6.37483284256321      1.05169320331183
  H   -0.90047900934541      6.78068177820092      1.75822673182395
  H   -2.53758842637963      6.10307728535893      1.56730879989354
  H   -1.81660462873136      7.09567906009091      0.26248895756149
