21
Coordinates from ORCA-job geom
  C   -5.14461162648225      2.58064273061184     -0.37632089412946
  C   -4.76920727218760      1.24085057935043     -0.13077787467428
  C   -3.46196966642548      0.88592767332175      0.05591753548403
  H   -5.54438845872430      0.48707695620736     -0.09192534892278
  C   -2.45145953833777      1.87559675153035      0.00380857540800
  C   -2.80930059303098      3.23221814797089     -0.24305302495812
  C   -4.18372861410355      3.56280398001523     -0.43238539844744
  H   -6.18777240427826      2.81644757326539     -0.51765948858052
  O   -4.43387069295464      4.87848165271734     -0.66185842253663
  H   -3.16493993490765     -0.13541341137038      0.24415485811685
  N   -1.15862559506416      1.49812571028343      0.19302709209963
  C   -0.22749777371189      2.42135202399490      0.14249009741216
  C   -0.48314510290673      3.78739908734632     -0.09626243597163
  C   -1.77805803397872      4.19179163649915     -0.28897897551831
  H   0.79326204722816      2.08590005625597      0.29713634141104
  H   0.33559805212753      4.49293742021799     -0.12417585765676
  H   -2.02375273797376      5.22705476653231     -0.47453856272979
  C   -5.77947064713985      5.28312849412431     -0.84958231743217
  H   -5.75100930176517      6.35741559591590     -1.00909277848471
  H   -6.22092677243888      4.79628343078742     -1.72290182281709
  H   -6.38555855574403      5.06133592222208      0.03249545072797
