7
X N 1
  C   -3.84034789408126      0.82219792943157      0.05910072303393
  H   -4.90684593577327      0.68249705991672      0.20775935846083
  H   -3.62802852305214      0.94307771588166     -0.99660319401273
  H   -3.49832536946392      1.67983723140628      0.62626712680026
  S   -3.06340026856720     -0.69058408356451      0.68378672380950
  N   -0.33515320625812     -0.01605501983519      0.15958247440327
  C   -1.45869380280407     -0.28263383323653      0.37034078750493
