13
17 N 0
N	0.0000	-0.0000	-0.3852
C	-0.9758	-0.9757	0.0634
C	1.3330	-0.3571	0.0634
C	-0.3572	1.3328	0.0634
H	-1.0253	-1.0252	1.1492
H	1.4006	-0.3752	1.1492
H	-0.3753	1.4004	1.1492
H	-1.9833	-0.7091	-0.3156
H	-0.7093	-1.9833	-0.3156
H	1.6060	-1.3629	-0.3156
H	2.0722	0.3776	-0.3156
H	0.3774	2.0722	-0.3156
H	-1.3631	1.6057	-0.3156
