12
X N 0
C	0.3959320	0.6502590	0.0000000
C	-0.3959320	-0.6502590	0.0000000
N	-0.3959320	1.8688430	0.0000000
N	0.3959320	-1.8688430	0.0000000
H	0.9981050	-1.8914940	0.8096940
H	0.9981050	-1.8914940	-0.8096940
H	-0.9981050	1.8914940	0.8096940
H	-0.9981050	1.8914940	-0.8096940
H	-1.0461600	-0.6636760	-0.8715240
H	-1.0461600	-0.6636760	0.8715240
H	1.0461600	0.6636760	-0.8715240
H	1.0461600	0.6636760	0.8715240
