13
X N 0
C	0.2950550	0.2227140	0.0000000
N	-0.9136480	1.0375180	0.0000000
H	1.2091070	0.8272050	0.0000000
C	0.2950550	-0.6341840	1.2445230
C	0.2950550	-0.6341840	-1.2445230
H	-0.9382810	1.6370440	-0.8141990
H	-0.9382810	1.6370440	0.8141990
H	-0.5906410	-1.2659340	1.2540760
H	-0.5906410	-1.2659340	-1.2540760
H	1.1814350	-1.2638890	1.2755890
H	1.1814350	-1.2638890	-1.2755890
H	0.2852080	-0.0151740	2.1405310
H	0.2852080	-0.0151740	-2.1405310
