13
X N 1
  C   -0.18869207087698     -1.20037284675138     -0.21980767734548
  C   -0.02681965867488     -0.29137576377738     -1.27132388463522
  N   -0.25704432236556     -0.85507565496699      1.06529044136152
  H   -0.22238869816358      0.70381591326893      2.41130829351044
  H   0.06616467818983      2.46864830835669      0.68073575995756
  C   -0.16410615160374      0.44576368380449      1.36284236225505
  N   0.10202265665236     -0.73490093369291     -2.58350107071917
  H   -0.26389381222444     -2.26029778771542     -0.43855052982472
  C   0.06886308223093      1.05964570214588     -0.94022367280880
  C   -0.00294400051335      1.42917491805794      0.39465686121296
  H   0.20045041892328      1.80228251088057     -1.71638195106104
  H   -0.30800361533014     -1.63762149349261     -2.75755467066943
  H   -0.18139650624372     -0.06588255611781     -3.27979726123366
