11
X N 1
  C   -0.03752057385522     -1.25254637688205     -0.22416617208157
  C   -0.01081488475014     -0.34947309489610     -1.27498871494599
  N   -0.02605161510157     -0.88133232986434      1.06456495332420
  F   0.02358679302563      0.76398992163544      2.59093599707807
  H   0.07335460937648      2.44685249289830      0.64062146973287
  C   0.01250016306302      0.40556280826674      1.30267268196080
  H   -0.02166699076390     -0.70262901143119     -2.29460517289689
  H   -0.06942486534817     -2.31767880768632     -0.40700135868463
  C   0.02993753312388      1.01048022544452     -0.98113115230873
  C   0.04226889175830      1.41017355197290      0.34496967822951
  H   0.05175893947169      1.74772362054210     -1.77027920940764
