13
X N 1
  C   -0.23313957553828     -1.20351206374758     -0.25608330405570
  C   -0.02397289040003     -0.29438512676752     -1.30045974906425
  N   -0.31071043532454     -0.82636733227801      1.02138516604911
  H   -0.26003959641743      0.74331303553614      2.34242157571390
  H   0.11984968546532      2.48810700651199      0.61616025462977
  C   -0.18827602540897      0.47734373394813      1.29582937621939
  H   0.02433793724863     -0.64138151453065     -2.32301563122300
  N   -0.43031480167657     -2.55025806775618     -0.50952176343880
  C   0.11035605551891      1.04696788134647     -0.99572994637777
  C   0.02406823323461      1.45113273557078      0.33362790469842
  H   0.27551427856994      1.76769522843709     -1.78389500098309
  H   0.03669191511778     -2.91367053510733     -1.32187716172307
  H   -0.31032678038938     -3.12009798116333      0.31173727955510
