13
X N 0
C	-1.4226200	1.2655530	0.0000000
C	0.0000000	0.7447630	0.0000000
C	0.0518460	-0.7700340	0.0000000
N	1.3839280	-1.3581480	0.0000000
H	-1.4452650	2.3521420	0.0000000
H	-1.9616260	0.9180680	0.8792690
H	-1.9616260	0.9180680	-0.8792690
H	0.5335660	1.1165220	0.8761040
H	0.5335660	1.1165220	-0.8761040
H	-0.4792590	-1.1475160	0.8735140
H	-0.4792590	-1.1475160	-0.8735140
H	1.8985250	-1.0304740	-0.8075490
H	1.8985250	-1.0304740	0.8075490
